test/simple-eu.xiidm
<?xml version="1.0" encoding="UTF-8"?>
<iidm:network xmlns:iidm="http://www.powsybl.org/schema/iidm/1_13" id="simple-eu" caseDate="2024-09-25T14:47:58.371+02:00" forecastDistance="0" sourceFormat="UCTE" minimumValidationLevel="STEADY_STATE_HYPOTHESIS">
    <iidm:substation id="BBE1AA" country="BE">
        <iidm:voltageLevel id="BBE1AA1" nominalV="380.0" topologyKind="BUS_BREAKER">
            <iidm:busBreakerTopology>
                <iidm:bus id="BBE1AA1 ">
                    <iidm:property name="geographicalName" value=""/>
                </iidm:bus>
                <iidm:bus id="BBE3AA1 ">
                    <iidm:property name="geographicalName" value=""/>
                </iidm:bus>
            </iidm:busBreakerTopology>
            <iidm:generator id="BBE1AA1 _generator" energySource="OTHER" minP="-0.0" maxP="4999.0" voltageRegulatorOn="true" targetP="1500.0" targetV="400.0" targetQ="0.0" bus="BBE1AA1 " connectableBus="BBE1AA1 ">
                <iidm:property name="powerPlantType" value="F"/>
                <iidm:minMaxReactiveLimits minQ="-4999.0" maxQ="9000.0"/>
            </iidm:generator>
            <iidm:generator id="BBE3AA1 _generator" energySource="OTHER" minP="-0.0" maxP="4999.0" voltageRegulatorOn="true" targetP="2500.0" targetV="400.0" targetQ="0.0" bus="BBE3AA1 " connectableBus="BBE3AA1 ">
                <iidm:property name="powerPlantType" value="F"/>
                <iidm:minMaxReactiveLimits minQ="-4999.0" maxQ="9000.0"/>
            </iidm:generator>
            <iidm:load id="BBE1AA1 _load" loadType="UNDEFINED" p0="3000.0" q0="0.0" bus="BBE1AA1 " connectableBus="BBE1AA1 "/>
            <iidm:load id="BBE3AA1 _load" loadType="UNDEFINED" p0="1500.0" q0="0.0" bus="BBE3AA1 " connectableBus="BBE3AA1 "/>
        </iidm:voltageLevel>
        <iidm:twoWindingsTransformer id="BBE1AA1  BBE3AA1  2" r="0.208" x="25.5" g="1.0625E-6" b="-2.1625E-6" ratedU1="400.0" ratedU2="400.0" voltageLevelId1="BBE1AA1" bus1="BBE3AA1 " connectableBus1="BBE3AA1 " voltageLevelId2="BBE1AA1" bus2="BBE1AA1 " connectableBus2="BBE1AA1 " selectedOperationalLimitsGroupId2="DEFAULT">
            <iidm:phaseTapChanger lowTapPosition="-33" tapPosition="5" regulationMode="FIXED_TAP">
                <iidm:step r="0.0" x="0.0" g="0.0" b="0.0" rho="1.0" alpha="30.03643446525459"/>
                <iidm:step r="0.0" x="0.0" g="0.0" b="0.0" rho="1.0" alpha="29.165605433646384"/>
                <iidm:step r="0.0" x="0.0" g="0.0" b="0.0" rho="1.0" alpha="28.29131942955121"/>
                <iidm:step r="0.0" x="0.0" g="0.0" b="0.0" rho="1.0" alpha="27.413658209363543"/>
                <iidm:step r="0.0" x="0.0" g="0.0" b="0.0" rho="1.0" alpha="26.53270574557424"/>
                <iidm:step r="0.0" x="0.0" g="0.0" b="0.0" rho="1.0" alpha="25.648548197479965"/>
                <iidm:step r="0.0" x="0.0" g="0.0" b="0.0" rho="1.0" alpha="24.761273878586437"/>
                <iidm:step r="0.0" x="0.0" g="0.0" b="0.0" rho="1.0" alpha="23.870973220693376"/>
                <iidm:step r="0.0" x="0.0" g="0.0" b="0.0" rho="1.0" alpha="22.977738734657493"/>
                <iidm:step r="0.0" x="0.0" g="0.0" b="0.0" rho="1.0" alpha="22.08166496783861"/>
                <iidm:step r="0.0" x="0.0" g="0.0" b="0.0" rho="1.0" alpha="21.18284845824317"/>
                <iidm:step r="0.0" x="0.0" g="0.0" b="0.0" rho="1.0" alpha="20.281387685388435"/>
                <iidm:step r="0.0" x="0.0" g="0.0" b="0.0" rho="1.0" alpha="19.37738301791999"/>
                <iidm:step r="0.0" x="0.0" g="0.0" b="0.0" rho="1.0" alpha="18.47093665802492"/>
                <iidm:step r="0.0" x="0.0" g="0.0" b="0.0" rho="1.0" alpha="17.562152582692264"/>
                <iidm:step r="0.0" x="0.0" g="0.0" b="0.0" rho="1.0" alpha="16.65113648188203"/>
                <iidm:step r="0.0" x="0.0" g="0.0" b="0.0" rho="1.0" alpha="15.73799569367387"/>
                <iidm:step r="0.0" x="0.0" g="0.0" b="0.0" rho="1.0" alpha="14.822839136475594"/>
                <iidm:step r="0.0" x="0.0" g="0.0" b="0.0" rho="1.0" alpha="13.905777238381578"/>
                <iidm:step r="0.0" x="0.0" g="0.0" b="0.0" rho="1.0" alpha="12.986921863780067"/>
                <iidm:step r="0.0" x="0.0" g="0.0" b="0.0" rho="1.0" alpha="12.066386237317658"/>
                <iidm:step r="0.0" x="0.0" g="0.0" b="0.0" rho="1.0" alpha="11.14428486533801"/>
                <iidm:step r="0.0" x="0.0" g="0.0" b="0.0" rho="1.0" alpha="10.220733454920376"/>
                <iidm:step r="0.0" x="0.0" g="0.0" b="0.0" rho="1.0" alpha="9.295848830651893"/>
                <iidm:step r="0.0" x="0.0" g="0.0" b="0.0" rho="1.0" alpha="8.36974884927523"/>
                <iidm:step r="0.0" x="0.0" g="0.0" b="0.0" rho="1.0" alpha="7.442552312360817"/>
                <iidm:step r="0.0" x="0.0" g="0.0" b="0.0" rho="1.0" alpha="6.514378877159774"/>
                <iidm:step r="0.0" x="0.0" g="0.0" b="0.0" rho="1.0" alpha="5.585348965800079"/>
                <iidm:step r="0.0" x="0.0" g="0.0" b="0.0" rho="1.0" alpha="4.655583672994567"/>
                <iidm:step r="0.0" x="0.0" g="0.0" b="0.0" rho="1.0" alpha="3.7252046724346606"/>
                <iidm:step r="0.0" x="0.0" g="0.0" b="0.0" rho="1.0" alpha="2.7943341220484723"/>
                <iidm:step r="0.0" x="0.0" g="0.0" b="0.0" rho="1.0" alpha="1.8630945683061657"/>
                <iidm:step r="0.0" x="0.0" g="0.0" b="0.0" rho="1.0" alpha="0.9316088497588244"/>
                <iidm:step r="0.0" x="0.0" g="0.0" b="0.0" rho="1.0" alpha="-0.0"/>
                <iidm:step r="0.0" x="0.0" g="0.0" b="0.0" rho="1.0" alpha="-0.9316088497588244"/>
                <iidm:step r="0.0" x="0.0" g="0.0" b="0.0" rho="1.0" alpha="-1.8630945683061657"/>
                <iidm:step r="0.0" x="0.0" g="0.0" b="0.0" rho="1.0" alpha="-2.7943341220484723"/>
                <iidm:step r="0.0" x="0.0" g="0.0" b="0.0" rho="1.0" alpha="-3.7252046724346606"/>
                <iidm:step r="0.0" x="0.0" g="0.0" b="0.0" rho="1.0" alpha="-4.655583672994567"/>
                <iidm:step r="0.0" x="0.0" g="0.0" b="0.0" rho="1.0" alpha="-5.585348965800079"/>
                <iidm:step r="0.0" x="0.0" g="0.0" b="0.0" rho="1.0" alpha="-6.514378877159774"/>
                <iidm:step r="0.0" x="0.0" g="0.0" b="0.0" rho="1.0" alpha="-7.442552312360817"/>
                <iidm:step r="0.0" x="0.0" g="0.0" b="0.0" rho="1.0" alpha="-8.36974884927523"/>
                <iidm:step r="0.0" x="0.0" g="0.0" b="0.0" rho="1.0" alpha="-9.295848830651893"/>
                <iidm:step r="0.0" x="0.0" g="0.0" b="0.0" rho="1.0" alpha="-10.220733454920376"/>
                <iidm:step r="0.0" x="0.0" g="0.0" b="0.0" rho="1.0" alpha="-11.14428486533801"/>
                <iidm:step r="0.0" x="0.0" g="0.0" b="0.0" rho="1.0" alpha="-12.066386237317658"/>
                <iidm:step r="0.0" x="0.0" g="0.0" b="0.0" rho="1.0" alpha="-12.986921863780067"/>
                <iidm:step r="0.0" x="0.0" g="0.0" b="0.0" rho="1.0" alpha="-13.905777238381578"/>
                <iidm:step r="0.0" x="0.0" g="0.0" b="0.0" rho="1.0" alpha="-14.822839136475594"/>
                <iidm:step r="0.0" x="0.0" g="0.0" b="0.0" rho="1.0" alpha="-15.73799569367387"/>
                <iidm:step r="0.0" x="0.0" g="0.0" b="0.0" rho="1.0" alpha="-16.65113648188203"/>
                <iidm:step r="0.0" x="0.0" g="0.0" b="0.0" rho="1.0" alpha="-17.562152582692264"/>
                <iidm:step r="0.0" x="0.0" g="0.0" b="0.0" rho="1.0" alpha="-18.47093665802492"/>
                <iidm:step r="0.0" x="0.0" g="0.0" b="0.0" rho="1.0" alpha="-19.37738301791999"/>
                <iidm:step r="0.0" x="0.0" g="0.0" b="0.0" rho="1.0" alpha="-20.281387685388435"/>
                <iidm:step r="0.0" x="0.0" g="0.0" b="0.0" rho="1.0" alpha="-21.18284845824317"/>
                <iidm:step r="0.0" x="0.0" g="0.0" b="0.0" rho="1.0" alpha="-22.08166496783861"/>
                <iidm:step r="0.0" x="0.0" g="0.0" b="0.0" rho="1.0" alpha="-22.977738734657493"/>
                <iidm:step r="0.0" x="0.0" g="0.0" b="0.0" rho="1.0" alpha="-23.870973220693376"/>
                <iidm:step r="0.0" x="0.0" g="0.0" b="0.0" rho="1.0" alpha="-24.761273878586437"/>
                <iidm:step r="0.0" x="0.0" g="0.0" b="0.0" rho="1.0" alpha="-25.648548197479965"/>
                <iidm:step r="0.0" x="0.0" g="0.0" b="0.0" rho="1.0" alpha="-26.53270574557424"/>
                <iidm:step r="0.0" x="0.0" g="0.0" b="0.0" rho="1.0" alpha="-27.413658209363543"/>
                <iidm:step r="0.0" x="0.0" g="0.0" b="0.0" rho="1.0" alpha="-28.29131942955121"/>
                <iidm:step r="0.0" x="0.0" g="0.0" b="0.0" rho="1.0" alpha="-29.165605433646384"/>
                <iidm:step r="0.0" x="0.0" g="0.0" b="0.0" rho="1.0" alpha="-30.03643446525459"/>
            </iidm:phaseTapChanger>
            <iidm:operationalLimitsGroup2 id="DEFAULT">
                <iidm:currentLimits permanentLimit="1227.0"/>
            </iidm:operationalLimitsGroup2>
        </iidm:twoWindingsTransformer>
    </iidm:substation>
    <iidm:substation id="BBE2AA" country="BE">
        <iidm:voltageLevel id="BBE2AA1" nominalV="380.0" topologyKind="BUS_BREAKER">
            <iidm:busBreakerTopology>
                <iidm:bus id="BBE2AA1 ">
                    <iidm:property name="geographicalName" value=""/>
                </iidm:bus>
            </iidm:busBreakerTopology>
            <iidm:generator id="BBE2AA1 _generator" energySource="OTHER" minP="-0.0" maxP="4999.0" voltageRegulatorOn="true" targetP="3000.0" targetV="400.0" targetQ="0.0" bus="BBE2AA1 " connectableBus="BBE2AA1 ">
                <iidm:property name="powerPlantType" value="F"/>
                <iidm:minMaxReactiveLimits minQ="-4999.0" maxQ="9000.0"/>
            </iidm:generator>
            <iidm:load id="BBE2AA1 _load" loadType="UNDEFINED" p0="1000.0" q0="0.0" bus="BBE2AA1 " connectableBus="BBE2AA1 "/>
        </iidm:voltageLevel>
    </iidm:substation>
    <iidm:substation id="DDE1AA" country="DE">
        <iidm:voltageLevel id="DDE1AA1" nominalV="380.0" topologyKind="BUS_BREAKER">
            <iidm:busBreakerTopology>
                <iidm:bus id="DDE1AA1 ">
                    <iidm:property name="geographicalName" value=""/>
                </iidm:bus>
            </iidm:busBreakerTopology>
            <iidm:generator id="DDE1AA1 _generator" energySource="OTHER" minP="-0.0" maxP="4999.0" voltageRegulatorOn="true" targetP="2500.0" targetV="400.0" targetQ="0.0" bus="DDE1AA1 " connectableBus="DDE1AA1 ">
                <iidm:property name="powerPlantType" value="F"/>
                <iidm:minMaxReactiveLimits minQ="-4999.0" maxQ="9000.0"/>
            </iidm:generator>
            <iidm:load id="DDE1AA1 _load" loadType="UNDEFINED" p0="3500.0" q0="0.0" bus="DDE1AA1 " connectableBus="DDE1AA1 "/>
        </iidm:voltageLevel>
    </iidm:substation>
    <iidm:substation id="DDE2AA" country="DE">
        <iidm:voltageLevel id="DDE2AA1" nominalV="380.0" topologyKind="BUS_BREAKER">
            <iidm:busBreakerTopology>
                <iidm:bus id="DDE2AA1 ">
                    <iidm:property name="geographicalName" value=""/>
                </iidm:bus>
            </iidm:busBreakerTopology>
            <iidm:generator id="DDE2AA1 _generator" energySource="OTHER" minP="-0.0" maxP="4999.0" voltageRegulatorOn="true" targetP="2000.0" targetV="400.0" targetQ="0.0" bus="DDE2AA1 " connectableBus="DDE2AA1 ">
                <iidm:property name="powerPlantType" value="F"/>
                <iidm:minMaxReactiveLimits minQ="-4999.0" maxQ="9000.0"/>
            </iidm:generator>
            <iidm:load id="DDE2AA1 _load" loadType="UNDEFINED" p0="3000.0" q0="0.0" bus="DDE2AA1 " connectableBus="DDE2AA1 "/>
        </iidm:voltageLevel>
    </iidm:substation>
    <iidm:substation id="DDE3AA" country="DE">
        <iidm:voltageLevel id="DDE3AA1" nominalV="380.0" topologyKind="BUS_BREAKER">
            <iidm:busBreakerTopology>
                <iidm:bus id="DDE3AA1 ">
                    <iidm:property name="geographicalName" value=""/>
                </iidm:bus>
            </iidm:busBreakerTopology>
            <iidm:generator id="DDE3AA1 _generator" energySource="OTHER" minP="-0.0" maxP="4999.0" voltageRegulatorOn="true" targetP="1500.0" targetV="400.0" targetQ="0.0" bus="DDE3AA1 " connectableBus="DDE3AA1 ">
                <iidm:property name="powerPlantType" value="F"/>
                <iidm:minMaxReactiveLimits minQ="-4999.0" maxQ="9000.0"/>
            </iidm:generator>
            <iidm:load id="DDE3AA1 _load" loadType="UNDEFINED" p0="2000.0" q0="0.0" bus="DDE3AA1 " connectableBus="DDE3AA1 "/>
        </iidm:voltageLevel>
    </iidm:substation>
    <iidm:substation id="FFR1AA" country="FR">
        <iidm:voltageLevel id="FFR1AA1" nominalV="380.0" topologyKind="BUS_BREAKER">
            <iidm:busBreakerTopology>
                <iidm:bus id="FFR1AA1 ">
                    <iidm:property name="geographicalName" value=""/>
                </iidm:bus>
                <iidm:bus id="FFR2AA1 ">
                    <iidm:property name="geographicalName" value=""/>
                </iidm:bus>
            </iidm:busBreakerTopology>
            <iidm:generator id="FFR1AA1 _generator" energySource="OTHER" minP="-0.0" maxP="4999.0" voltageRegulatorOn="true" targetP="2000.0" targetV="400.0" targetQ="0.0" bus="FFR1AA1 " connectableBus="FFR1AA1 ">
                <iidm:property name="powerPlantType" value="F"/>
                <iidm:minMaxReactiveLimits minQ="-4999.0" maxQ="9000.0"/>
            </iidm:generator>
            <iidm:generator id="FFR2AA1 _generator" energySource="OTHER" minP="-0.0" maxP="4999.0" voltageRegulatorOn="true" targetP="2000.0" targetV="400.0" targetQ="0.0" bus="FFR2AA1 " connectableBus="FFR2AA1 ">
                <iidm:property name="powerPlantType" value="F"/>
                <iidm:minMaxReactiveLimits minQ="-4999.0" maxQ="9000.0"/>
            </iidm:generator>
            <iidm:load id="FFR1AA1 _load" loadType="UNDEFINED" p0="1000.0" q0="0.0" bus="FFR1AA1 " connectableBus="FFR1AA1 "/>
            <iidm:load id="FFR2AA1 _load" loadType="UNDEFINED" p0="3500.0" q0="0.0" bus="FFR2AA1 " connectableBus="FFR2AA1 "/>
        </iidm:voltageLevel>
        <iidm:twoWindingsTransformer id="FFR1AA1  FFR2AA1  2" r="0.0867" x="13.988" g="1.2215999999999999E-6" b="-2.3275E-6" ratedU1="400.0" ratedU2="400.0" voltageLevelId1="FFR1AA1" bus1="FFR2AA1 " connectableBus1="FFR2AA1 " voltageLevelId2="FFR1AA1" bus2="FFR1AA1 " connectableBus2="FFR1AA1 " selectedOperationalLimitsGroupId2="DEFAULT">
            <iidm:phaseTapChanger lowTapPosition="-17" tapPosition="-5" regulationMode="FIXED_TAP">
                <iidm:step r="0.0" x="0.0" g="0.0" b="0.0" rho="1.0" alpha="24.626770983868578"/>
                <iidm:step r="0.0" x="0.0" g="0.0" b="0.0" rho="1.0" alpha="23.218635088189416"/>
                <iidm:step r="0.0" x="0.0" g="0.0" b="0.0" rho="1.0" alpha="21.80335377276497"/>
                <iidm:step r="0.0" x="0.0" g="0.0" b="0.0" rho="1.0" alpha="20.381307454584693"/>
                <iidm:step r="0.0" x="0.0" g="0.0" b="0.0" rho="1.0" alpha="18.95288852594606"/>
                <iidm:step r="0.0" x="0.0" g="0.0" b="0.0" rho="1.0" alpha="17.51850082096051"/>
                <iidm:step r="0.0" x="0.0" g="0.0" b="0.0" rho="1.0" alpha="16.078559033093974"/>
                <iidm:step r="0.0" x="0.0" g="0.0" b="0.0" rho="1.0" alpha="14.633488085286928"/>
                <iidm:step r="0.0" x="0.0" g="0.0" b="0.0" rho="1.0" alpha="13.183722454567805"/>
                <iidm:step r="0.0" x="0.0" g="0.0" b="0.0" rho="1.0" alpha="11.729705453437543"/>
                <iidm:step r="0.0" x="0.0" g="0.0" b="0.0" rho="1.0" alpha="10.271888470656732"/>
                <iidm:step r="0.0" x="0.0" g="0.0" b="0.0" rho="1.0" alpha="8.810730174406205"/>
                <iidm:step r="0.0" x="0.0" g="0.0" b="0.0" rho="1.0" alpha="7.346695681112592"/>
                <iidm:step r="0.0" x="0.0" g="0.0" b="0.0" rho="1.0" alpha="5.880255693527764"/>
                <iidm:step r="0.0" x="0.0" g="0.0" b="0.0" rho="1.0" alpha="4.411885611921348"/>
                <iidm:step r="0.0" x="0.0" g="0.0" b="0.0" rho="1.0" alpha="2.9420646224849096"/>
                <iidm:step r="0.0" x="0.0" g="0.0" b="0.0" rho="1.0" alpha="1.471274767251245"/>
                <iidm:step r="0.0" x="0.0" g="0.0" b="0.0" rho="1.0" alpha="-0.0"/>
                <iidm:step r="0.0" x="0.0" g="0.0" b="0.0" rho="1.0" alpha="-1.471274767251245"/>
                <iidm:step r="0.0" x="0.0" g="0.0" b="0.0" rho="1.0" alpha="-2.9420646224849096"/>
                <iidm:step r="0.0" x="0.0" g="0.0" b="0.0" rho="1.0" alpha="-4.411885611921348"/>
                <iidm:step r="0.0" x="0.0" g="0.0" b="0.0" rho="1.0" alpha="-5.880255693527764"/>
                <iidm:step r="0.0" x="0.0" g="0.0" b="0.0" rho="1.0" alpha="-7.346695681112592"/>
                <iidm:step r="0.0" x="0.0" g="0.0" b="0.0" rho="1.0" alpha="-8.810730174406205"/>
                <iidm:step r="0.0" x="0.0" g="0.0" b="0.0" rho="1.0" alpha="-10.271888470656732"/>
                <iidm:step r="0.0" x="0.0" g="0.0" b="0.0" rho="1.0" alpha="-11.729705453437543"/>
                <iidm:step r="0.0" x="0.0" g="0.0" b="0.0" rho="1.0" alpha="-13.183722454567805"/>
                <iidm:step r="0.0" x="0.0" g="0.0" b="0.0" rho="1.0" alpha="-14.633488085286928"/>
                <iidm:step r="0.0" x="0.0" g="0.0" b="0.0" rho="1.0" alpha="-16.078559033093974"/>
                <iidm:step r="0.0" x="0.0" g="0.0" b="0.0" rho="1.0" alpha="-17.51850082096051"/>
                <iidm:step r="0.0" x="0.0" g="0.0" b="0.0" rho="1.0" alpha="-18.95288852594606"/>
                <iidm:step r="0.0" x="0.0" g="0.0" b="0.0" rho="1.0" alpha="-20.381307454584693"/>
                <iidm:step r="0.0" x="0.0" g="0.0" b="0.0" rho="1.0" alpha="-21.80335377276497"/>
                <iidm:step r="0.0" x="0.0" g="0.0" b="0.0" rho="1.0" alpha="-23.218635088189416"/>
                <iidm:step r="0.0" x="0.0" g="0.0" b="0.0" rho="1.0" alpha="-24.626770983868578"/>
            </iidm:phaseTapChanger>
            <iidm:operationalLimitsGroup2 id="DEFAULT">
                <iidm:currentLimits permanentLimit="2329.0"/>
            </iidm:operationalLimitsGroup2>
        </iidm:twoWindingsTransformer>
    </iidm:substation>
    <iidm:substation id="FFR3AA" country="FR">
        <iidm:voltageLevel id="FFR3AA1" nominalV="380.0" topologyKind="BUS_BREAKER">
            <iidm:busBreakerTopology>
                <iidm:bus id="FFR3AA1 ">
                    <iidm:property name="geographicalName" value=""/>
                </iidm:bus>
            </iidm:busBreakerTopology>
            <iidm:generator id="FFR3AA1 _generator" energySource="OTHER" minP="-0.0" maxP="4999.0" voltageRegulatorOn="true" targetP="3000.0" targetV="400.0" targetQ="0.0" bus="FFR3AA1 " connectableBus="FFR3AA1 ">
                <iidm:property name="powerPlantType" value="F"/>
                <iidm:minMaxReactiveLimits minQ="-4999.0" maxQ="9000.0"/>
            </iidm:generator>
            <iidm:load id="FFR3AA1 _load" loadType="UNDEFINED" p0="1500.0" q0="0.0" bus="FFR3AA1 " connectableBus="FFR3AA1 "/>
        </iidm:voltageLevel>
    </iidm:substation>
    <iidm:substation id="NNL1AA" country="NL">
        <iidm:voltageLevel id="NNL1AA1" nominalV="380.0" topologyKind="BUS_BREAKER">
            <iidm:busBreakerTopology>
                <iidm:bus id="NNL1AA1 ">
                    <iidm:property name="geographicalName" value=""/>
                </iidm:bus>
            </iidm:busBreakerTopology>
            <iidm:generator id="NNL1AA1 _generator" energySource="OTHER" minP="-0.0" maxP="4999.0" voltageRegulatorOn="true" targetP="1500.0" targetV="400.0" targetQ="0.0" bus="NNL1AA1 " connectableBus="NNL1AA1 ">
                <iidm:property name="powerPlantType" value="F"/>
                <iidm:minMaxReactiveLimits minQ="-4999.0" maxQ="9000.0"/>
            </iidm:generator>
            <iidm:load id="NNL1AA1 _load" loadType="UNDEFINED" p0="1000.0" q0="0.0" bus="NNL1AA1 " connectableBus="NNL1AA1 "/>
        </iidm:voltageLevel>
    </iidm:substation>
    <iidm:substation id="NNL2AA" country="NL">
        <iidm:voltageLevel id="NNL2AA1" nominalV="380.0" topologyKind="BUS_BREAKER">
            <iidm:busBreakerTopology>
                <iidm:bus id="NNL2AA1 ">
                    <iidm:property name="geographicalName" value=""/>
                </iidm:bus>
            </iidm:busBreakerTopology>
            <iidm:generator id="NNL2AA1 _generator" energySource="OTHER" minP="-0.0" maxP="4999.0" voltageRegulatorOn="true" targetP="500.0" targetV="400.0" targetQ="0.0" bus="NNL2AA1 " connectableBus="NNL2AA1 ">
                <iidm:property name="powerPlantType" value="F"/>
                <iidm:minMaxReactiveLimits minQ="-4999.0" maxQ="9000.0"/>
            </iidm:generator>
            <iidm:load id="NNL2AA1 _load" loadType="UNDEFINED" p0="1000.0" q0="0.0" bus="NNL2AA1 " connectableBus="NNL2AA1 "/>
        </iidm:voltageLevel>
    </iidm:substation>
    <iidm:substation id="NNL3AA" country="NL">
        <iidm:voltageLevel id="NNL3AA1" nominalV="380.0" topologyKind="BUS_BREAKER">
            <iidm:busBreakerTopology>
                <iidm:bus id="NNL3AA1 ">
                    <iidm:property name="geographicalName" value=""/>
                </iidm:bus>
            </iidm:busBreakerTopology>
            <iidm:generator id="NNL3AA1 _generator" energySource="OTHER" minP="-0.0" maxP="4999.0" voltageRegulatorOn="true" targetP="2500.0" targetV="400.0" targetQ="0.0" bus="NNL3AA1 " connectableBus="NNL3AA1 ">
                <iidm:property name="powerPlantType" value="F"/>
                <iidm:minMaxReactiveLimits minQ="-4999.0" maxQ="9000.0"/>
            </iidm:generator>
            <iidm:load id="NNL3AA1 _load" loadType="UNDEFINED" p0="2500.0" q0="0.0" bus="NNL3AA1 " connectableBus="NNL3AA1 "/>
        </iidm:voltageLevel>
    </iidm:substation>
    <iidm:line id="BBE1AA1  BBE2AA1  1" r="0.0" x="10.0" g1="0.0" b1="0.0" g2="0.0" b2="0.0" voltageLevelId1="BBE1AA1" bus1="BBE1AA1 " connectableBus1="BBE1AA1 " voltageLevelId2="BBE2AA1" bus2="BBE2AA1 " connectableBus2="BBE2AA1 " selectedOperationalLimitsGroupId1="DEFAULT" selectedOperationalLimitsGroupId2="DEFAULT">
        <iidm:operationalLimitsGroup1 id="DEFAULT">
            <iidm:currentLimits permanentLimit="5000.0"/>
        </iidm:operationalLimitsGroup1>
        <iidm:operationalLimitsGroup2 id="DEFAULT">
            <iidm:currentLimits permanentLimit="5000.0"/>
        </iidm:operationalLimitsGroup2>
    </iidm:line>
    <iidm:line id="BBE1AA1  BBE3AA1  1" r="0.0" x="10.0" g1="0.0" b1="0.0" g2="0.0" b2="0.0" voltageLevelId1="BBE1AA1" bus1="BBE1AA1 " connectableBus1="BBE1AA1 " voltageLevelId2="BBE1AA1" bus2="BBE3AA1 " connectableBus2="BBE3AA1 " selectedOperationalLimitsGroupId1="DEFAULT" selectedOperationalLimitsGroupId2="DEFAULT">
        <iidm:operationalLimitsGroup1 id="DEFAULT">
            <iidm:currentLimits permanentLimit="5000.0"/>
        </iidm:operationalLimitsGroup1>
        <iidm:operationalLimitsGroup2 id="DEFAULT">
            <iidm:currentLimits permanentLimit="5000.0"/>
        </iidm:operationalLimitsGroup2>
    </iidm:line>
    <iidm:line id="BBE2AA1  BBE3AA1  1" r="0.0" x="10.0" g1="0.0" b1="0.0" g2="0.0" b2="0.0" voltageLevelId1="BBE2AA1" bus1="BBE2AA1 " connectableBus1="BBE2AA1 " voltageLevelId2="BBE1AA1" bus2="BBE3AA1 " connectableBus2="BBE3AA1 " selectedOperationalLimitsGroupId1="DEFAULT" selectedOperationalLimitsGroupId2="DEFAULT">
        <iidm:operationalLimitsGroup1 id="DEFAULT">
            <iidm:currentLimits permanentLimit="5000.0"/>
        </iidm:operationalLimitsGroup1>
        <iidm:operationalLimitsGroup2 id="DEFAULT">
            <iidm:currentLimits permanentLimit="5000.0"/>
        </iidm:operationalLimitsGroup2>
    </iidm:line>
    <iidm:line id="BBE2AA1  FFR3AA1  1" r="0.0" x="10.0" g1="0.0" b1="0.0" g2="0.0" b2="0.0" voltageLevelId1="BBE2AA1" bus1="BBE2AA1 " connectableBus1="BBE2AA1 " voltageLevelId2="FFR3AA1" bus2="FFR3AA1 " connectableBus2="FFR3AA1 " selectedOperationalLimitsGroupId1="DEFAULT" selectedOperationalLimitsGroupId2="DEFAULT">
        <iidm:operationalLimitsGroup1 id="DEFAULT">
            <iidm:currentLimits permanentLimit="5000.0"/>
        </iidm:operationalLimitsGroup1>
        <iidm:operationalLimitsGroup2 id="DEFAULT">
            <iidm:currentLimits permanentLimit="5000.0"/>
        </iidm:operationalLimitsGroup2>
    </iidm:line>
    <iidm:line id="DDE1AA1  DDE2AA1  1" r="0.0" x="10.0" g1="0.0" b1="0.0" g2="0.0" b2="0.0" voltageLevelId1="DDE1AA1" bus1="DDE1AA1 " connectableBus1="DDE1AA1 " voltageLevelId2="DDE2AA1" bus2="DDE2AA1 " connectableBus2="DDE2AA1 " selectedOperationalLimitsGroupId1="DEFAULT" selectedOperationalLimitsGroupId2="DEFAULT">
        <iidm:operationalLimitsGroup1 id="DEFAULT">
            <iidm:currentLimits permanentLimit="5000.0"/>
        </iidm:operationalLimitsGroup1>
        <iidm:operationalLimitsGroup2 id="DEFAULT">
            <iidm:currentLimits permanentLimit="5000.0"/>
        </iidm:operationalLimitsGroup2>
    </iidm:line>
    <iidm:line id="DDE1AA1  DDE3AA1  1" r="0.0" x="10.0" g1="0.0" b1="0.0" g2="0.0" b2="0.0" voltageLevelId1="DDE1AA1" bus1="DDE1AA1 " connectableBus1="DDE1AA1 " voltageLevelId2="DDE3AA1" bus2="DDE3AA1 " connectableBus2="DDE3AA1 " selectedOperationalLimitsGroupId1="DEFAULT" selectedOperationalLimitsGroupId2="DEFAULT">
        <iidm:operationalLimitsGroup1 id="DEFAULT">
            <iidm:currentLimits permanentLimit="5000.0"/>
        </iidm:operationalLimitsGroup1>
        <iidm:operationalLimitsGroup2 id="DEFAULT">
            <iidm:currentLimits permanentLimit="5000.0"/>
        </iidm:operationalLimitsGroup2>
    </iidm:line>
    <iidm:line id="DDE2AA1  DDE3AA1  1" r="0.0" x="10.0" g1="0.0" b1="0.0" g2="0.0" b2="0.0" voltageLevelId1="DDE2AA1" bus1="DDE2AA1 " connectableBus1="DDE2AA1 " voltageLevelId2="DDE3AA1" bus2="DDE3AA1 " connectableBus2="DDE3AA1 " selectedOperationalLimitsGroupId1="DEFAULT" selectedOperationalLimitsGroupId2="DEFAULT">
        <iidm:operationalLimitsGroup1 id="DEFAULT">
            <iidm:currentLimits permanentLimit="5000.0"/>
        </iidm:operationalLimitsGroup1>
        <iidm:operationalLimitsGroup2 id="DEFAULT">
            <iidm:currentLimits permanentLimit="5000.0"/>
        </iidm:operationalLimitsGroup2>
    </iidm:line>
    <iidm:line id="DDE2AA1  NNL3AA1  1" r="0.0" x="10.0" g1="0.0" b1="0.0" g2="0.0" b2="0.0" voltageLevelId1="DDE2AA1" bus1="DDE2AA1 " connectableBus1="DDE2AA1 " voltageLevelId2="NNL3AA1" bus2="NNL3AA1 " connectableBus2="NNL3AA1 " selectedOperationalLimitsGroupId1="DEFAULT" selectedOperationalLimitsGroupId2="DEFAULT">
        <iidm:operationalLimitsGroup1 id="DEFAULT">
            <iidm:currentLimits permanentLimit="5000.0"/>
        </iidm:operationalLimitsGroup1>
        <iidm:operationalLimitsGroup2 id="DEFAULT">
            <iidm:currentLimits permanentLimit="5000.0"/>
        </iidm:operationalLimitsGroup2>
    </iidm:line>
    <iidm:line id="FFR1AA1  FFR2AA1  1" r="0.0" x="10.0" g1="0.0" b1="0.0" g2="0.0" b2="0.0" voltageLevelId1="FFR1AA1" bus1="FFR1AA1 " connectableBus1="FFR1AA1 " voltageLevelId2="FFR1AA1" bus2="FFR2AA1 " connectableBus2="FFR2AA1 " selectedOperationalLimitsGroupId1="DEFAULT" selectedOperationalLimitsGroupId2="DEFAULT">
        <iidm:operationalLimitsGroup1 id="DEFAULT">
            <iidm:currentLimits permanentLimit="5000.0"/>
        </iidm:operationalLimitsGroup1>
        <iidm:operationalLimitsGroup2 id="DEFAULT">
            <iidm:currentLimits permanentLimit="5000.0"/>
        </iidm:operationalLimitsGroup2>
    </iidm:line>
    <iidm:line id="FFR1AA1  FFR3AA1  1" r="0.0" x="10.0" g1="0.0" b1="0.0" g2="0.0" b2="0.0" voltageLevelId1="FFR1AA1" bus1="FFR1AA1 " connectableBus1="FFR1AA1 " voltageLevelId2="FFR3AA1" bus2="FFR3AA1 " connectableBus2="FFR3AA1 " selectedOperationalLimitsGroupId1="DEFAULT" selectedOperationalLimitsGroupId2="DEFAULT">
        <iidm:operationalLimitsGroup1 id="DEFAULT">
            <iidm:currentLimits permanentLimit="5000.0"/>
        </iidm:operationalLimitsGroup1>
        <iidm:operationalLimitsGroup2 id="DEFAULT">
            <iidm:currentLimits permanentLimit="5000.0"/>
        </iidm:operationalLimitsGroup2>
    </iidm:line>
    <iidm:line id="FFR2AA1  DDE3AA1  1" r="0.0" x="10.0" g1="0.0" b1="0.0" g2="0.0" b2="0.0" voltageLevelId1="FFR1AA1" bus1="FFR2AA1 " connectableBus1="FFR2AA1 " voltageLevelId2="DDE3AA1" bus2="DDE3AA1 " connectableBus2="DDE3AA1 " selectedOperationalLimitsGroupId1="DEFAULT" selectedOperationalLimitsGroupId2="DEFAULT">
        <iidm:operationalLimitsGroup1 id="DEFAULT">
            <iidm:currentLimits permanentLimit="5000.0"/>
        </iidm:operationalLimitsGroup1>
        <iidm:operationalLimitsGroup2 id="DEFAULT">
            <iidm:currentLimits permanentLimit="5000.0"/>
        </iidm:operationalLimitsGroup2>
    </iidm:line>
    <iidm:line id="FFR2AA1  FFR3AA1  1" r="0.0" x="10.0" g1="0.0" b1="0.0" g2="0.0" b2="0.0" voltageLevelId1="FFR1AA1" bus1="FFR2AA1 " connectableBus1="FFR2AA1 " voltageLevelId2="FFR3AA1" bus2="FFR3AA1 " connectableBus2="FFR3AA1 " selectedOperationalLimitsGroupId1="DEFAULT" selectedOperationalLimitsGroupId2="DEFAULT">
        <iidm:operationalLimitsGroup1 id="DEFAULT">
            <iidm:currentLimits permanentLimit="5000.0"/>
        </iidm:operationalLimitsGroup1>
        <iidm:operationalLimitsGroup2 id="DEFAULT">
            <iidm:currentLimits permanentLimit="5000.0"/>
        </iidm:operationalLimitsGroup2>
    </iidm:line>
    <iidm:line id="NNL1AA1  NNL2AA1  1" r="0.0" x="10.0" g1="0.0" b1="0.0" g2="0.0" b2="0.0" voltageLevelId1="NNL1AA1" bus1="NNL1AA1 " connectableBus1="NNL1AA1 " voltageLevelId2="NNL2AA1" bus2="NNL2AA1 " connectableBus2="NNL2AA1 " selectedOperationalLimitsGroupId1="DEFAULT" selectedOperationalLimitsGroupId2="DEFAULT">
        <iidm:operationalLimitsGroup1 id="DEFAULT">
            <iidm:currentLimits permanentLimit="5000.0"/>
        </iidm:operationalLimitsGroup1>
        <iidm:operationalLimitsGroup2 id="DEFAULT">
            <iidm:currentLimits permanentLimit="5000.0"/>
        </iidm:operationalLimitsGroup2>
    </iidm:line>
    <iidm:line id="NNL1AA1  NNL3AA1  1" r="0.0" x="10.0" g1="0.0" b1="0.0" g2="0.0" b2="0.0" voltageLevelId1="NNL1AA1" bus1="NNL1AA1 " connectableBus1="NNL1AA1 " voltageLevelId2="NNL3AA1" bus2="NNL3AA1 " connectableBus2="NNL3AA1 " selectedOperationalLimitsGroupId1="DEFAULT" selectedOperationalLimitsGroupId2="DEFAULT">
        <iidm:operationalLimitsGroup1 id="DEFAULT">
            <iidm:currentLimits permanentLimit="5000.0"/>
        </iidm:operationalLimitsGroup1>
        <iidm:operationalLimitsGroup2 id="DEFAULT">
            <iidm:currentLimits permanentLimit="5000.0"/>
        </iidm:operationalLimitsGroup2>
    </iidm:line>
    <iidm:line id="NNL2AA1  BBE3AA1  1" r="0.0" x="10.0" g1="0.0" b1="0.0" g2="0.0" b2="0.0" voltageLevelId1="NNL2AA1" bus1="NNL2AA1 " connectableBus1="NNL2AA1 " voltageLevelId2="BBE1AA1" bus2="BBE3AA1 " connectableBus2="BBE3AA1 " selectedOperationalLimitsGroupId1="DEFAULT" selectedOperationalLimitsGroupId2="DEFAULT">
        <iidm:operationalLimitsGroup1 id="DEFAULT">
            <iidm:currentLimits permanentLimit="5000.0"/>
        </iidm:operationalLimitsGroup1>
        <iidm:operationalLimitsGroup2 id="DEFAULT">
            <iidm:currentLimits permanentLimit="5000.0"/>
        </iidm:operationalLimitsGroup2>
    </iidm:line>
    <iidm:line id="NNL2AA1  NNL3AA1  1" r="0.0" x="10.0" g1="0.0" b1="0.0" g2="0.0" b2="0.0" voltageLevelId1="NNL2AA1" bus1="NNL2AA1 " connectableBus1="NNL2AA1 " voltageLevelId2="NNL3AA1" bus2="NNL3AA1 " connectableBus2="NNL3AA1 " selectedOperationalLimitsGroupId1="DEFAULT" selectedOperationalLimitsGroupId2="DEFAULT">
        <iidm:operationalLimitsGroup1 id="DEFAULT">
            <iidm:currentLimits permanentLimit="5000.0"/>
        </iidm:operationalLimitsGroup1>
        <iidm:operationalLimitsGroup2 id="DEFAULT">
            <iidm:currentLimits permanentLimit="5000.0"/>
        </iidm:operationalLimitsGroup2>
    </iidm:line>
</iidm:network>
